<?xml version="1.0" encoding="UTF-8"?>

<!-- generated on 2025-10-23 23:10:00 by Eclipse SUMO netedit Version 1.24.0
<neteditConfiguration xmlns:xsi="http://www.w3.org/2001/XMLSchema-instance" xsi:noNamespaceSchemaLocation="http://sumo.dlr.de/xsd/neteditConfiguration.xsd">

    <input>
        <sumocfg-file value="/home/chris/CARLA_5cc238b5c-dirty/Co-Simulation/Sumo/examples/UBAutonomousProvingGrounds.sumocfg"/>
        <route-files value="/home/chris/CARLA_5cc238b5c-dirty/Co-Simulation/Sumo/examples/rou/UBAutonomousProvingGrounds.rou.xml"/>
        <sumo-net-file value="/home/chris/CARLA_5cc238b5c-dirty/Co-Simulation/Sumo/examples/net/UBAutonomousProvingGrounds.net.xml"/>
    </input>

    <output>
        <output-file value="/home/chris/CARLA_5cc238b5c-dirty/Co-Simulation/Sumo/examples/net/UBAutonomousProvingGrounds.net.xml"/>
    </output>

    <processing>
        <geometry.min-radius.fix.railways value="false"/>
        <geometry.avoid-overlap value="false"/>
        <geometry.max-grade.fix value="false"/>
        <offset.disable-normalization value="true"/>
        <lefthand value="0"/>
    </processing>

    <junctions>
        <no-internal-links value="false"/>
        <no-turnarounds value="true"/>
        <junctions.corner-detail value="5"/>
        <junctions.limit-turn-speed value="5.50"/>
        <rectangular-lane-cut value="1"/>
    </junctions>

    <pedestrian>
        <walkingareas value="0"/>
    </pedestrian>

    <netedit>
        <ignore.routeelements value="false"/>
    </netedit>

</neteditConfiguration>
-->

<net version="1.20" junctionCornerDetail="5" rectangularLaneCut="true" limitTurnSpeed="5.50" avoidOverlap="0" xmlns:xsi="http://www.w3.org/2001/XMLSchema-instance" xsi:noNamespaceSchemaLocation="http://sumo.dlr.de/xsd/net_file.xsd">

    <location netOffset="594.60,147.58" convBoundary="0.00,0.00,2293.68,2142.93" origBoundary="0.000000,0.000000,0.000000,0.000000" projParameter="+proj=tmerc +lat_0=42.9926180599693 +lon_0=-78.7924945927909 +k=1 +x_0=0 +y_0=0 +datum=WGS84 +units=m +vunits=m +no_defs"/>

    <type id="bidirectional" priority="1" speed="1.39" disallow="pedestrian tram rail_urban rail rail_electric rail_fast ship container cable_car subway aircraft wheelchair scooter drone" width="3.65"/>
    <type id="driving" priority="1" speed="13.89" disallow="pedestrian tram rail_urban rail rail_electric rail_fast ship container cable_car subway aircraft wheelchair scooter drone" width="3.65"/>

    <edge id=":1000.end_0" function="internal">
        <lane id=":1000.end_0_0" index="0" disallow="pedestrian tram rail_urban rail rail_electric rail_fast ship container cable_car subway aircraft wheelchair scooter drone" speed="3.82" length="5.11" width="3.50" shape="606.79,954.24 608.11,955.11 608.55,955.98 608.12,956.86 606.81,957.74"/>
    </edge>
    <edge id=":1004.end_0" function="internal">
        <lane id=":1004.end_0_0" index="0" disallow="pedestrian tram rail_urban rail rail_electric rail_fast ship container cable_car subway aircraft wheelchair scooter drone" speed="3.82" length="5.11" width="3.50" shape="603.94,1116.62 604.83,1115.32 605.71,1114.89 606.58,1115.34 607.44,1116.66"/>
    </edge>
    <edge id=":1006#1_0" function="internal">
        <lane id=":1006#1_0_0" index="0" disallow="pedestrian tram rail_urban rail rail_electric rail_fast ship container cable_car subway aircraft wheelchair scooter drone" speed="17.88" length="5.89" width="3.50" shape="728.60,476.54 732.94,480.52"/>
    </edge>
    <edge id=":1009.begin_0" function="internal">
        <lane id=":1009.begin_0_0" index="0" disallow="pedestrian tram rail_urban rail rail_electric rail_fast ship container cable_car subway aircraft wheelchair scooter drone" speed="3.82" length="5.11" width="3.50" shape="2293.93,338.92 2295.10,339.97 2295.41,340.90 2294.85,341.70 2293.43,342.38"/>
    </edge>
    <edge id=":1009.end_0" function="internal">
        <lane id=":1009.end_0_0" index="0" disallow="pedestrian tram rail_urban rail rail_electric rail_fast ship container cable_car subway aircraft wheelchair scooter drone" speed="3.82" length="5.11" width="3.50" shape="1822.50,269.30 1821.66,267.96 1821.62,266.98 1822.38,266.36 1823.94,266.10"/>
    </edge>
    <edge id=":1026.end_0" function="internal">
        <lane id=":1026.end_0_0" index="0" disallow="pedestrian tram rail_urban rail rail_electric rail_fast ship container cable_car subway aircraft wheelchair scooter drone" speed="3.82" length="5.11" width="3.50" shape="137.03,1903.25 136.15,1904.56 135.28,1905.00 134.40,1904.56 133.53,1903.25"/>
    </edge>
    <edge id=":1028.end_0" function="internal">
        <lane id=":1028.end_0_0" index="0" disallow="pedestrian tram rail_urban rail rail_electric rail_fast ship container cable_car subway aircraft wheelchair scooter drone" speed="3.82" length="5.11" width="3.50" shape="1399.73,577.11 1401.03,578.01 1401.45,578.89 1401.00,579.76 1399.67,580.61"/>
    </edge>
    <edge id=":1037_0" function="internal">
        <lane id=":1037_0_0" index="0" disallow="pedestrian tram rail_urban rail rail_electric rail_fast ship container cable_car subway aircraft wheelchair scooter drone" speed="17.88" length="40.73" width="3.50" shape="921.77,1578.56 881.08,1579.60"/>
        <lane id=":1037_0_1" index="1" disallow="pedestrian tram rail_urban rail rail_electric rail_fast ship container cable_car subway aircraft wheelchair scooter drone" speed="17.88" length="40.73" width="3.50" shape="921.73,1575.06 880.98,1576.10"/>
    </edge>
    <edge id=":1037_2" function="internal">
        <lane id=":1037_2_0" index="0" disallow="pedestrian tram rail_urban rail rail_electric rail_fast ship container cable_car subway aircraft wheelchair scooter drone" speed="17.88" length="40.64" width="3.50" shape="921.73,1575.06 911.88,1574.72 899.59,1573.81 888.24,1572.73 881.23,1571.92"/>
    </edge>
    <edge id=":1041_0" function="internal">
        <lane id=":1041_0_0" index="0" disallow="pedestrian tram rail_urban rail rail_electric rail_fast ship container cable_car subway aircraft wheelchair scooter drone" speed="6.62" length="9.27" width="3.50" shape="1005.98,1397.83 1003.46,1398.17 1001.65,1399.23 1000.56,1401.02 1000.18,1403.53"/>
    </edge>
    <edge id=":1041_1" function="internal">
        <lane id=":1041_1_0" index="0" disallow="pedestrian tram rail_urban rail rail_electric rail_fast ship container cable_car subway aircraft wheelchair scooter drone" speed="8.22" length="14.90" width="3.50" shape="1005.98,1397.83 1001.94,1397.22 999.07,1395.47 997.35,1392.57 996.80,1388.52"/>
    </edge>
    <edge id=":1041_2" function="internal">
        <lane id=":1041_2_0" index="0" disallow="pedestrian tram rail_urban rail rail_electric rail_fast ship container cable_car subway aircraft wheelchair scooter drone" speed="6.62" length="9.27" width="3.50" shape="1000.30,1388.54 1000.65,1391.06 1001.71,1392.86 1003.50,1393.95 1006.01,1394.33"/>
    </edge>
    <edge id=":1041_3" function="internal">
        <lane id=":1041_3_0" index="0" disallow="pedestrian tram rail_urban rail rail_electric rail_fast ship container cable_car subway aircraft wheelchair scooter drone" speed="17.88" length="14.99" width="3.50" shape="1000.30,1388.54 1000.18,1403.53"/>
    </edge>
    <edge id=":1041_4" function="internal">
        <lane id=":1041_4_0" index="0" disallow="pedestrian tram rail_urban rail rail_electric rail_fast ship container cable_car subway aircraft wheelchair scooter drone" speed="17.88" length="14.98" width="3.50" shape="996.68,1403.50 996.80,1388.52"/>
    </edge>
    <edge id=":1041_5" function="internal">
        <lane id=":1041_5_0" index="0" disallow="pedestrian tram rail_urban rail rail_electric rail_fast ship container cable_car subway aircraft wheelchair scooter drone" speed="8.22" length="4.49" width="3.50" shape="996.68,1403.50 997.29,1399.46 997.50,1399.11"/>
    </edge>
    <edge id=":1041_6" function="internal">
        <lane id=":1041_6_0" index="0" disallow="pedestrian tram rail_urban rail rail_electric rail_fast ship container cable_car subway aircraft wheelchair scooter drone" speed="8.22" length="10.42" width="3.50" shape="997.50,1399.11 999.05,1396.59 1001.96,1394.88 1006.01,1394.33"/>
    </edge>
    <edge id=":1048_0" function="internal">
        <lane id=":1048_0_0" index="0" disallow="pedestrian tram rail_urban rail rail_electric rail_fast ship container cable_car subway aircraft wheelchair scooter drone" speed="6.58" length="9.28" width="3.50" shape="267.28,227.35 264.76,227.66 262.95,228.71 261.86,230.50 261.49,233.02"/>
    </edge>
    <edge id=":1048_1" function="internal">
        <lane id=":1048_1_0" index="0" disallow="pedestrian tram rail_urban rail rail_electric rail_fast ship container cable_car subway aircraft wheelchair scooter drone" speed="17.88" length="15.03" width="3.50" shape="267.28,227.35 252.26,227.16"/>
    </edge>
    <edge id=":1048_2" function="internal">
        <lane id=":1048_2_0" index="0" disallow="pedestrian tram rail_urban rail rail_electric rail_fast ship container cable_car subway aircraft wheelchair scooter drone" speed="17.88" length="15.07" width="3.50" shape="252.28,223.66 267.35,223.85"/>
    </edge>
    <edge id=":1048_3" function="internal">
        <lane id=":1048_3_0" index="0" disallow="pedestrian tram rail_urban rail rail_electric rail_fast ship container cable_car subway aircraft wheelchair scooter drone" speed="8.23" length="4.56" width="3.50" shape="252.28,223.66 256.32,224.26 256.72,224.50"/>
    </edge>
    <edge id=":1048_6" function="internal">
        <lane id=":1048_6_0" index="0" disallow="pedestrian tram rail_urban rail rail_electric rail_fast ship container cable_car subway aircraft wheelchair scooter drone" speed="8.23" length="10.42" width="3.50" shape="256.72,224.50 259.20,226.02 260.92,228.94 261.49,233.02"/>
    </edge>
    <edge id=":1048_4" function="internal">
        <lane id=":1048_4_0" index="0" disallow="pedestrian tram rail_urban rail rail_electric rail_fast ship container cable_car subway aircraft wheelchair scooter drone" speed="6.64" length="9.33" width="3.50" shape="257.99,233.01 257.64,230.46 256.57,228.63 254.77,227.53 252.26,227.16"/>
    </edge>
    <edge id=":1048_5" function="internal">
        <lane id=":1048_5_0" index="0" disallow="pedestrian tram rail_urban rail rail_electric rail_fast ship container cable_car subway aircraft wheelchair scooter drone" speed="8.19" length="14.98" width="3.50" shape="257.99,233.01 258.59,228.94 260.35,226.05 263.27,224.36 267.35,223.85"/>
    </edge>
    <edge id=":105.end_0" function="internal">
        <lane id=":105.end_0_0" index="0" disallow="pedestrian tram rail_urban rail rail_electric rail_fast ship container cable_car subway aircraft wheelchair scooter drone" speed="3.82" length="5.11" width="3.50" shape="750.96,950.24 749.41,950.55 748.49,950.23 748.18,949.30 748.50,947.76"/>
    </edge>
    <edge id=":1062_0" function="internal">
        <lane id=":1062_0_0" index="0" disallow="pedestrian tram rail_urban rail rail_electric rail_fast ship container cable_car subway aircraft wheelchair scooter drone" speed="17.88" length="15.02" width="3.50" shape="261.24,300.84 261.20,315.86"/>
    </edge>
    <edge id=":1062_1" function="internal">
        <lane id=":1062_1_0" index="0" disallow="pedestrian tram rail_urban rail rail_electric rail_fast ship container cable_car subway aircraft wheelchair scooter drone" speed="8.21" length="4.50" width="3.50" shape="261.24,300.84 260.65,304.89 260.44,305.24"/>
    </edge>
    <edge id=":1062_6" function="internal">
        <lane id=":1062_6_0" index="0" disallow="pedestrian tram rail_urban rail rail_electric rail_fast ship container cable_car subway aircraft wheelchair scooter drone" speed="8.21" length="10.43" width="3.50" shape="260.44,305.24 258.90,307.78 256.00,309.49 251.94,310.05"/>
    </edge>
    <edge id=":1062_2" function="internal">
        <lane id=":1062_2_0" index="0" disallow="pedestrian tram rail_urban rail rail_electric rail_fast ship container cable_car subway aircraft wheelchair scooter drone" speed="6.61" length="9.27" width="3.50" shape="251.97,306.55 254.49,306.20 256.29,305.14 257.37,303.34 257.74,300.83"/>
    </edge>
    <edge id=":1062_3" function="internal">
        <lane id=":1062_3_0" index="0" disallow="pedestrian tram rail_urban rail rail_electric rail_fast ship container cable_car subway aircraft wheelchair scooter drone" speed="8.22" length="14.95" width="3.50" shape="251.97,306.55 256.03,307.15 258.92,308.91 260.64,311.81 261.20,315.86"/>
    </edge>
    <edge id=":1062_4" function="internal">
        <lane id=":1062_4_0" index="0" disallow="pedestrian tram rail_urban rail rail_electric rail_fast ship container cable_car subway aircraft wheelchair scooter drone" speed="6.63" length="9.31" width="3.50" shape="257.70,315.83 257.35,313.32 256.28,311.51 254.47,310.42 251.94,310.05"/>
    </edge>
    <edge id=":1062_5" function="internal">
        <lane id=":1062_5_0" index="0" disallow="pedestrian tram rail_urban rail rail_electric rail_fast ship container cable_car subway aircraft wheelchair scooter drone" speed="17.88" length="15.01" width="3.50" shape="257.70,315.83 257.74,300.83"/>
    </edge>
    <edge id=":1076_0" function="internal">
        <lane id=":1076_0_0" index="0" disallow="pedestrian tram rail_urban rail rail_electric rail_fast ship container cable_car subway aircraft wheelchair scooter drone" speed="8.84" length="16.08" width="3.50" shape="219.73,430.48 217.38,425.12 214.94,421.48 212.39,419.58 209.74,419.40"/>
    </edge>
    <edge id=":1076_1" function="internal">
        <lane id=":1076_1_0" index="0" disallow="pedestrian tram rail_urban rail rail_electric rail_fast ship container cable_car subway aircraft wheelchair scooter drone" speed="17.88" length="22.58" width="3.50" shape="219.73,430.48 218.25,425.78 216.61,419.64 215.09,413.46 213.96,408.66"/>
    </edge>
    <edge id=":1076_2" function="internal">
        <lane id=":1076_2_0" index="0" disallow="pedestrian tram rail_urban rail rail_electric rail_fast ship container cable_car subway aircraft wheelchair scooter drone" speed="9.46" length="21.75" width="3.50" shape="219.73,430.48 217.84,423.43 217.97,418.01 220.11,414.23 224.28,412.10"/>
    </edge>
    <edge id=":1076_3" function="internal">
        <lane id=":1076_3_0" index="0" disallow="pedestrian tram rail_urban rail rail_electric rail_fast ship container cable_car subway aircraft wheelchair scooter drone" speed="8.14" length="15.77" width="3.50" shape="225.14,415.49 222.54,416.98 221.32,419.77 221.47,423.87 223.01,429.28"/>
    </edge>
    <edge id=":1076_4" function="internal">
        <lane id=":1076_4_0" index="0" disallow="pedestrian tram rail_urban rail rail_electric rail_fast ship container cable_car subway aircraft wheelchair scooter drone" speed="17.88" length="15.89" width="3.50" shape="225.14,415.49 209.74,419.40"/>
    </edge>
    <edge id=":1076_5" function="internal">
        <lane id=":1076_5_0" index="0" disallow="pedestrian tram rail_urban rail rail_electric rail_fast ship container cable_car subway aircraft wheelchair scooter drone" speed="8.17" length="4.53" width="3.50" shape="225.14,415.49 221.03,415.93 220.66,415.81"/>
    </edge>
    <edge id=":1076_12" function="internal">
        <lane id=":1076_12_0" index="0" disallow="pedestrian tram rail_urban rail rail_electric rail_fast ship container cable_car subway aircraft wheelchair scooter drone" speed="8.17" length="10.50" width="3.50" shape="220.66,415.81 217.80,414.94 215.44,412.51 213.96,408.66"/>
    </edge>
    <edge id=":1076_6" function="internal">
        <lane id=":1076_6_0" index="0" disallow="pedestrian tram rail_urban rail rail_electric rail_fast ship container cable_car subway aircraft wheelchair scooter drone" speed="6.56" length="9.28" width="3.50" shape="217.38,407.88 218.29,410.26 219.75,411.76 221.74,412.37 224.28,412.10"/>
    </edge>
    <edge id=":1076_7" function="internal">
        <lane id=":1076_7_0" index="0" disallow="pedestrian tram rail_urban rail rail_electric rail_fast ship container cable_car subway aircraft wheelchair scooter drone" speed="17.88" length="22.14" width="3.50" shape="217.38,407.88 218.48,412.62 219.96,418.64 221.56,424.64 223.01,429.28"/>
    </edge>
    <edge id=":1076_8" function="internal">
        <lane id=":1076_8_0" index="0" disallow="pedestrian tram rail_urban rail rail_electric rail_fast ship container cable_car subway aircraft wheelchair scooter drone" speed="8.48" length="15.67" width="3.50" shape="217.38,407.88 217.67,411.99 216.50,415.29 213.85,417.75 209.74,419.40"/>
    </edge>
    <edge id=":1076_9" function="internal">
        <lane id=":1076_9_0" index="0" disallow="pedestrian tram rail_urban rail rail_electric rail_fast ship container cable_car subway aircraft wheelchair scooter drone" speed="6.94" length="10.13" width="3.50" shape="208.88,416.00 211.59,414.94 213.34,413.36 214.14,411.26 213.96,408.66"/>
    </edge>
    <edge id=":1076_10" function="internal">
        <lane id=":1076_10_0" index="0" disallow="pedestrian tram rail_urban rail rail_electric rail_fast ship container cable_car subway aircraft wheelchair scooter drone" speed="17.88" length="15.89" width="3.50" shape="208.88,416.00 224.28,412.10"/>
    </edge>
    <edge id=":1076_11" function="internal">
        <lane id=":1076_11_0" index="0" disallow="pedestrian tram rail_urban rail rail_electric rail_fast ship container cable_car subway aircraft wheelchair scooter drone" speed="10.08" length="3.49" width="3.50" shape="208.88,416.00 212.37,416.03"/>
    </edge>
    <edge id=":1076_13" function="internal">
        <lane id=":1076_13_0" index="0" disallow="pedestrian tram rail_urban rail rail_electric rail_fast ship container cable_car subway aircraft wheelchair scooter drone" speed="10.08" length="17.70" width="3.50" shape="212.37,416.03 212.93,416.03 216.64,418.25 220.00,422.66 223.01,429.28"/>
    </edge>
    <edge id=":108.begin_0" function="internal">
        <lane id=":108.begin_0_0" index="0" disallow="pedestrian tram rail_urban rail rail_electric rail_fast ship container cable_car subway aircraft wheelchair scooter drone" speed="3.82" length="5.11" width="3.50" shape="615.14,41.84 616.01,40.53 616.89,40.09 617.76,40.53 618.64,41.84"/>
    </edge>
    <edge id=":110.end_0" function="internal">
        <lane id=":110.end_0_0" index="0" disallow="pedestrian tram rail_urban rail rail_electric rail_fast ship container cable_car subway aircraft wheelchair scooter drone" speed="3.82" length="5.11" width="3.50" shape="2045.88,1223.95 2047.24,1224.75 2047.73,1225.60 2047.34,1226.50 2046.08,1227.45"/>
    </edge>
    <edge id=":1107_0" function="internal">
        <lane id=":1107_0_0" index="0" disallow="pedestrian tram rail_urban rail rail_electric rail_fast ship container cable_car subway aircraft wheelchair scooter drone" speed="8.48" length="15.58" width="3.50" shape="237.86,425.58 235.96,420.23 233.80,416.62 231.40,414.73 228.76,414.57"/>
    </edge>
    <edge id=":1107_1" function="internal">
        <lane id=":1107_1_0" index="0" disallow="pedestrian tram rail_urban rail rail_electric rail_fast ship container cable_car subway aircraft wheelchair scooter drone" speed="17.88" length="22.24" width="3.50" shape="237.86,425.58 232.31,404.04"/>
    </edge>
    <edge id=":1107_2" function="internal">
        <lane id=":1107_2_0" index="0" disallow="pedestrian tram rail_urban rail rail_electric rail_fast ship container cable_car subway aircraft wheelchair scooter drone" speed="9.56" length="21.09" width="3.50" shape="237.86,425.58 236.46,418.53 236.79,413.16 238.85,409.46 242.64,407.44"/>
    </edge>
    <edge id=":1107_3" function="internal">
        <lane id=":1107_3_0" index="0" disallow="pedestrian tram rail_urban rail rail_electric rail_fast ship container cable_car subway aircraft wheelchair scooter drone" speed="8.26" length="15.42" width="3.50" shape="243.50,410.83 241.20,412.24 240.06,415.01 240.07,419.13 241.23,424.61"/>
    </edge>
    <edge id=":1107_4" function="internal">
        <lane id=":1107_4_0" index="0" disallow="pedestrian tram rail_urban rail rail_electric rail_fast ship container cable_car subway aircraft wheelchair scooter drone" speed="17.88" length="15.21" width="3.50" shape="243.50,410.83 228.76,414.57"/>
    </edge>
    <edge id=":1107_5" function="internal">
        <lane id=":1107_5_0" index="0" disallow="pedestrian tram rail_urban rail rail_electric rail_fast ship container cable_car subway aircraft wheelchair scooter drone" speed="8.19" length="4.52" width="3.50" shape="243.50,410.83 239.41,411.27 239.03,411.15"/>
    </edge>
    <edge id=":1107_12" function="internal">
        <lane id=":1107_12_0" index="0" disallow="pedestrian tram rail_urban rail rail_electric rail_fast ship container cable_car subway aircraft wheelchair scooter drone" speed="8.19" length="10.47" width="3.50" shape="239.03,411.15 236.18,410.29 233.81,407.88 232.31,404.04"/>
    </edge>
    <edge id=":1107_6" function="internal">
        <lane id=":1107_6_0" index="0" disallow="pedestrian tram rail_urban rail rail_electric rail_fast ship container cable_car subway aircraft wheelchair scooter drone" speed="6.58" length="9.28" width="3.50" shape="235.71,403.24 236.64,405.61 238.11,407.10 240.11,407.71 242.64,407.44"/>
    </edge>
    <edge id=":1107_7" function="internal">
        <lane id=":1107_7_0" index="0" disallow="pedestrian tram rail_urban rail rail_electric rail_fast ship container cable_car subway aircraft wheelchair scooter drone" speed="17.88" length="22.08" width="3.50" shape="235.71,403.24 241.23,424.61"/>
    </edge>
    <edge id=":1107_8" function="internal">
        <lane id=":1107_8_0" index="0" disallow="pedestrian tram rail_urban rail rail_electric rail_fast ship container cable_car subway aircraft wheelchair scooter drone" speed="8.31" length="15.11" width="3.50" shape="235.71,403.24 236.08,407.33 235.04,410.58 232.60,413.00 228.76,414.57"/>
    </edge>
    <edge id=":1107_9" function="internal">
        <lane id=":1107_9_0" index="0" disallow="pedestrian tram rail_urban rail rail_electric rail_fast ship container cable_car subway aircraft wheelchair scooter drone" speed="6.74" length="9.53" width="3.50" shape="227.90,411.18 230.33,410.19 231.87,408.67 232.53,406.62 232.31,404.04"/>
    </edge>
    <edge id=":1107_10" function="internal">
        <lane id=":1107_10_0" index="0" disallow="pedestrian tram rail_urban rail rail_electric rail_fast ship container cable_car subway aircraft wheelchair scooter drone" speed="17.88" length="15.21" width="3.50" shape="227.90,411.18 242.64,407.44"/>
    </edge>
    <edge id=":1107_11" function="internal">
        <lane id=":1107_11_0" index="0" disallow="pedestrian tram rail_urban rail rail_electric rail_fast ship container cable_car subway aircraft wheelchair scooter drone" speed="9.74" length="3.60" width="3.50" shape="227.90,411.18 231.49,411.17"/>
    </edge>
    <edge id=":1107_13" function="internal">
        <lane id=":1107_13_0" index="0" disallow="pedestrian tram rail_urban rail rail_electric rail_fast ship container cable_car subway aircraft wheelchair scooter drone" speed="9.74" length="17.42" width="3.50" shape="231.49,411.17 232.07,411.17 235.68,413.41 238.73,417.89 241.23,424.61"/>
    </edge>
    <edge id=":1138_0" function="internal">
        <lane id=":1138_0_0" index="0" disallow="pedestrian tram rail_urban rail rail_electric rail_fast ship container cable_car subway aircraft wheelchair scooter drone" speed="17.88" length="15.01" width="3.50" shape="728.50,891.20 713.49,891.14"/>
    </edge>
    <edge id=":1138_1" function="internal">
        <lane id=":1138_1_0" index="0" disallow="pedestrian tram rail_urban rail rail_electric rail_fast ship container cable_car subway aircraft wheelchair scooter drone" speed="8.35" length="4.43" width="3.50" shape="728.50,891.20 724.52,890.60 724.17,890.39"/>
    </edge>
    <edge id=":1138_6" function="internal">
        <lane id=":1138_6_0" index="0" disallow="pedestrian tram rail_urban rail rail_electric rail_fast ship container cable_car subway aircraft wheelchair scooter drone" speed="8.35" length="10.54" width="3.50" shape="724.17,890.39 721.63,888.84 719.83,885.92 719.12,881.85"/>
    </edge>
    <edge id=":1138_2" function="internal">
        <lane id=":1138_2_0" index="0" disallow="pedestrian tram rail_urban rail rail_electric rail_fast ship container cable_car subway aircraft wheelchair scooter drone" speed="6.78" length="9.49" width="3.50" shape="722.62,881.72 723.06,884.33 724.20,886.19 726.01,887.32 728.51,887.70"/>
    </edge>
    <edge id=":1138_3" function="internal">
        <lane id=":1138_3_0" index="0" disallow="pedestrian tram rail_urban rail rail_electric rail_fast ship container cable_car subway aircraft wheelchair scooter drone" speed="8.15" length="15.09" width="3.50" shape="722.62,881.72 722.17,885.86 720.50,888.80 717.61,890.56 713.49,891.14"/>
    </edge>
    <edge id=":1138_4" function="internal">
        <lane id=":1138_4_0" index="0" disallow="pedestrian tram rail_urban rail rail_electric rail_fast ship container cable_car subway aircraft wheelchair scooter drone" speed="6.53" length="9.28" width="3.50" shape="713.50,887.64 716.04,887.28 717.82,886.20 718.84,884.39 719.12,881.85"/>
    </edge>
    <edge id=":1138_5" function="internal">
        <lane id=":1138_5_0" index="0" disallow="pedestrian tram rail_urban rail rail_electric rail_fast ship container cable_car subway aircraft wheelchair scooter drone" speed="17.88" length="15.01" width="3.50" shape="713.50,887.64 728.51,887.70"/>
    </edge>
    <edge id=":1145_0" function="internal">
        <lane id=":1145_0_0" index="0" disallow="pedestrian tram rail_urban rail rail_electric rail_fast ship container cable_car subway aircraft wheelchair scooter drone" speed="7.34" length="11.68" width="3.50" shape="807.52,884.29 807.05,887.45 805.68,889.71 803.41,891.06 800.24,891.50"/>
    </edge>
    <edge id=":1145_1" function="internal">
        <lane id=":1145_1_0" index="0" disallow="pedestrian tram rail_urban rail rail_electric rail_fast ship container cable_car subway aircraft wheelchair scooter drone" speed="5.50" length="6.04" width="3.50" shape="800.26,888.00 801.90,887.77 803.07,887.08 803.78,885.91 804.02,884.27"/>
    </edge>
    <edge id=":1148_0" function="internal">
        <lane id=":1148_0_0" index="0" disallow="pedestrian tram rail_urban rail rail_electric rail_fast ship container cable_car subway aircraft wheelchair scooter drone" speed="6.64" length="9.34" width="3.50" shape="987.79,754.96 985.24,755.31 983.41,756.38 982.31,758.17 981.93,760.68"/>
    </edge>
    <edge id=":1148_1" function="internal">
        <lane id=":1148_1_0" index="0" disallow="pedestrian tram rail_urban rail rail_electric rail_fast ship container cable_car subway aircraft wheelchair scooter drone" speed="17.88" length="15.07" width="3.50" shape="987.79,754.96 972.72,754.86"/>
    </edge>
    <edge id=":1148_2" function="internal">
        <lane id=":1148_2_0" index="0" disallow="pedestrian tram rail_urban rail rail_electric rail_fast ship container cable_car subway aircraft wheelchair scooter drone" speed="7.96" length="4.54" width="3.50" shape="987.79,754.96 984.51,754.10 983.59,753.41"/>
    </edge>
    <edge id=":1148_12" function="internal">
        <lane id=":1148_12_0" index="0" disallow="pedestrian tram rail_urban rail rail_electric rail_fast ship container cable_car subway aircraft wheelchair scooter drone" speed="7.96" length="9.63" width="3.50" shape="983.59,753.41 981.55,751.89 979.44,748.86 978.68,745.55"/>
    </edge>
    <edge id=":1148_3" function="internal">
        <lane id=":1148_3_0" index="0" disallow="pedestrian tram rail_urban rail rail_electric rail_fast ship container cable_car subway aircraft wheelchair scooter drone" speed="6.57" length="9.28" width="3.50" shape="982.18,745.65 982.47,748.18 983.50,749.99 985.28,751.09 987.81,751.46"/>
    </edge>
    <edge id=":1148_4" function="internal">
        <lane id=":1148_4_0" index="0" disallow="pedestrian tram rail_urban rail rail_electric rail_fast ship container cable_car subway aircraft wheelchair scooter drone" speed="17.88" length="15.04" width="3.50" shape="982.18,745.65 981.93,760.68"/>
    </edge>
    <edge id=":1148_5" function="internal">
        <lane id=":1148_5_0" index="0" disallow="pedestrian tram rail_urban rail rail_electric rail_fast ship container cable_car subway aircraft wheelchair scooter drone" speed="8.09" length="14.24" width="3.50" shape="982.18,745.65 981.27,748.95 979.05,751.92 976.04,754.05 972.72,754.86"/>
    </edge>
    <edge id=":1148_6" function="internal">
        <lane id=":1148_6_0" index="0" disallow="pedestrian tram rail_urban rail rail_electric rail_fast ship container cable_car subway aircraft wheelchair scooter drone" speed="6.70" length="9.42" width="3.50" shape="972.75,751.36 975.28,751.01 977.12,749.93 978.25,748.11 978.68,745.55"/>
    </edge>
    <edge id=":1148_7" function="internal">
        <lane id=":1148_7_0" index="0" disallow="pedestrian tram rail_urban rail rail_electric rail_fast ship container cable_car subway aircraft wheelchair scooter drone" speed="17.88" length="15.06" width="3.50" shape="972.75,751.36 987.81,751.46"/>
    </edge>
    <edge id=":1148_8" function="internal">
        <lane id=":1148_8_0" index="0" disallow="pedestrian tram rail_urban rail rail_electric rail_fast ship container cable_car subway aircraft wheelchair scooter drone" speed="8.02" length="4.48" width="3.50" shape="972.75,751.36 976.03,752.22 976.91,752.86"/>
    </edge>
    <edge id=":1148_13" function="internal">
        <lane id=":1148_13_0" index="0" disallow="pedestrian tram rail_urban rail rail_electric rail_fast ship container cable_car subway aircraft wheelchair scooter drone" speed="8.02" length="9.65" width="3.50" shape="976.91,752.86 978.98,754.40 981.12,757.39 981.93,760.68"/>
    </edge>
    <edge id=":1148_9" function="internal">