<?xml version="1.0" encoding="UTF-8"?>

<!-- generated on 2025-10-23 23:33:04 by Eclipse SUMO sumo Version 1.24.0
-->

<sumoConfiguration xmlns:xsi="http://www.w3.org/2001/XMLSchema-instance" xsi:noNamespaceSchemaLocation="http://sumo.dlr.de/xsd/sumoConfiguration.xsd">

    <input>
        <net-file value="net/UBAutonomousProvingGrounds.net.xml"/>
        <route-files value="rou/UBAutonomousProvingGrounds.rou.xml"/>
    </input>

</sumoConfiguration>
