<?xml version="1.0" encoding="UTF-8"?>

<!-- generated on 2025-10-23 23:33:04 by Eclipse SUMO netedit Version 1.24.0
-->

<routes xmlns:xsi="http://www.w3.org/2001/XMLSchema-instance" xsi:noNamespaceSchemaLocation="http://sumo.dlr.de/xsd/routes_file.xsd">
    <!-- Vehicles, persons and containers (sorted by depart) -->
    <flow id="f_0" begin="0.00" from="1021" to="956" end="3600.00" vehsPerHour="300"/>
    <flow id="f_1" begin="0.00" from="-915" to="956" end="3600.00" vehsPerHour="300"/>
    <flow id="f_2" begin="0.00" from="-956" to="753" via="-449" end="3600.00" vehsPerHour="300"/>
    <personFlow id="pf_0" begin="0.00" end="3600.00" personsPerHour="1800">
        <walk from="862" to="-160"/>
    </personFlow>
</routes>
