<?xml version="1.0" encoding="UTF-8"?>

<!-- generated on 2025-10-17 22:31:13 by Eclipse SUMO duarouter Version 1.20.0
<configuration xmlns:xsi="http://www.w3.org/2001/XMLSchema-instance" xsi:noNamespaceSchemaLocation="http://sumo.dlr.de/xsd/duarouterConfiguration.xsd">

    <input>
        <net-file value="UBAutonomousProvingGrounds.net.xml"/>
        <route-files value="targeted.trips.xml"/>
    </input>

    <output>
        <output-file value="targeted.rou.xml"/>
    </output>

    <report>
        <ignore-errors value="true"/>
        <no-step-log value="true"/>
    </report>

</configuration>
-->

<routes xmlns:xsi="http://www.w3.org/2001/XMLSchema-instance" xsi:noNamespaceSchemaLocation="http://sumo.dlr.de/xsd/routes_file.xsd">
    <vType id="car_passenger" vClass="passenger"/>
    <vehicle id="t0" type="car_passenger" depart="0.00">
        <route edges="16 1020 280 -619 861 160 -160 -861 619 -280 -1020 108 -108 1020 280 -619 861 338 429"/>
    </vehicle>
    <vehicle id="f0.0" type="car_passenger" depart="0.00" departLane="best" departSpeed="max">
        <route edges="16 1020 280 -619 861 160 -160 -861 619 -280 -1020 108 -108 1020 280 -619 861 338 429"/>
    </vehicle>
    <vehicle id="f0.1" type="car_passenger" depart="20.00" departLane="best" departSpeed="max">
        <route edges="16 1020 280 -619 861 160 -160 -861 619 -280 -1020 108 -108 1020 280 -619 861 338 429"/>
    </vehicle>
    <vehicle id="f0.2" type="car_passenger" depart="40.00" departLane="best" departSpeed="max">
        <route edges="16 1020 280 -619 861 160 -160 -861 619 -280 -1020 108 -108 1020 280 -619 861 338 429"/>
    </vehicle>
    <vehicle id="f0.3" type="car_passenger" depart="60.00" departLane="best" departSpeed="max">
        <route edges="16 1020 280 -619 861 160 -160 -861 619 -280 -1020 108 -108 1020 280 -619 861 338 429"/>
    </vehicle>
    <vehicle id="f0.4" type="car_passenger" depart="80.00" departLane="best" departSpeed="max">
        <route edges="16 1020 280 -619 861 160 -160 -861 619 -280 -1020 108 -108 1020 280 -619 861 338 429"/>
    </vehicle>
    <vehicle id="f0.5" type="car_passenger" depart="100.00" departLane="best" departSpeed="max">
        <route edges="16 1020 280 -619 861 160 -160 -861 619 -280 -1020 108 -108 1020 280 -619 861 338 429"/>
    </vehicle>
    <vehicle id="f0.6" type="car_passenger" depart="120.00" departLane="best" departSpeed="max">
        <route edges="16 1020 280 -619 861 160 -160 -861 619 -280 -1020 108 -108 1020 280 -619 861 338 429"/>
    </vehicle>
    <vehicle id="f0.7" type="car_passenger" depart="140.00" departLane="best" departSpeed="max">
        <route edges="16 1020 280 -619 861 160 -160 -861 619 -280 -1020 108 -108 1020 280 -619 861 338 429"/>
    </vehicle>
    <vehicle id="f0.8" type="car_passenger" depart="160.00" departLane="best" departSpeed="max">
        <route edges="16 1020 280 -619 861 160 -160 -861 619 -280 -1020 108 -108 1020 280 -619 861 338 429"/>
    </vehicle>
    <vehicle id="f0.9" type="car_passenger" depart="180.00" departLane="best" departSpeed="max">
        <route edges="16 1020 280 -619 861 160 -160 -861 619 -280 -1020 108 -108 1020 280 -619 861 338 429"/>
    </vehicle>
    <vehicle id="f0.10" type="car_passenger" depart="200.00" departLane="best" departSpeed="max">
        <route edges="16 1020 280 -619 861 160 -160 -861 619 -280 -1020 108 -108 1020 280 -619 861 338 429"/>
    </vehicle>
    <vehicle id="f0.11" type="car_passenger" depart="220.00" departLane="best" departSpeed="max">
        <route edges="16 1020 280 -619 861 160 -160 -861 619 -280 -1020 108 -108 1020 280 -619 861 338 429"/>
    </vehicle>
    <vehicle id="f0.12" type="car_passenger" depart="240.00" departLane="best" departSpeed="max">
        <route edges="16 1020 280 -619 861 160 -160 -861 619 -280 -1020 108 -108 1020 280 -619 861 338 429"/>
    </vehicle>
    <vehicle id="f0.13" type="car_passenger" depart="260.00" departLane="best" departSpeed="max">
        <route edges="16 1020 280 -619 861 160 -160 -861 619 -280 -1020 108 -108 1020 280 -619 861 338 429"/>
    </vehicle>
    <vehicle id="f0.14" type="car_passenger" depart="280.00" departLane="best" departSpeed="max">
        <route edges="16 1020 280 -619 861 160 -160 -861 619 -280 -1020 108 -108 1020 280 -619 861 338 429"/>
    </vehicle>
    <vehicle id="f0.15" type="car_passenger" depart="300.00" departLane="best" departSpeed="max">
        <route edges="16 1020 280 -619 861 160 -160 -861 619 -280 -1020 108 -108 1020 280 -619 861 338 429"/>
    </vehicle>
    <vehicle id="f0.16" type="car_passenger" depart="320.00" departLane="best" departSpeed="max">
        <route edges="16 1020 280 -619 861 160 -160 -861 619 -280 -1020 108 -108 1020 280 -619 861 338 429"/>
    </vehicle>
    <vehicle id="f0.17" type="car_passenger" depart="340.00" departLane="best" departSpeed="max">
        <route edges="16 1020 280 -619 861 160 -160 -861 619 -280 -1020 108 -108 1020 280 -619 861 338 429"/>
    </vehicle>
    <vehicle id="f0.18" type="car_passenger" depart="360.00" departLane="best" departSpeed="max">
        <route edges="16 1020 280 -619 861 160 -160 -861 619 -280 -1020 108 -108 1020 280 -619 861 338 429"/>
    </vehicle>
    <vehicle id="f0.19" type="car_passenger" depart="380.00" departLane="best" departSpeed="max">
        <route edges="16 1020 280 -619 861 160 -160 -861 619 -280 -1020 108 -108 1020 280 -619 861 338 429"/>
    </vehicle>
    <vehicle id="f0.20" type="car_passenger" depart="400.00" departLane="best" departSpeed="max">
        <route edges="16 1020 280 -619 861 160 -160 -861 619 -280 -1020 108 -108 1020 280 -619 861 338 429"/>
    </vehicle>
    <vehicle id="f0.21" type="car_passenger" depart="420.00" departLane="best" departSpeed="max">
        <route edges="16 1020 280 -619 861 160 -160 -861 619 -280 -1020 108 -108 1020 280 -619 861 338 429"/>
    </vehicle>
    <vehicle id="f0.22" type="car_passenger" depart="440.00" departLane="best" departSpeed="max">
        <route edges="16 1020 280 -619 861 160 -160 -861 619 -280 -1020 108 -108 1020 280 -619 861 338 429"/>
    </vehicle>
    <vehicle id="f0.23" type="car_passenger" depart="460.00" departLane="best" departSpeed="max">
        <route edges="16 1020 280 -619 861 160 -160 -861 619 -280 -1020 108 -108 1020 280 -619 861 338 429"/>
    </vehicle>
    <vehicle id="f0.24" type="car_passenger" depart="480.00" departLane="best" departSpeed="max">
        <route edges="16 1020 280 -619 861 160 -160 -861 619 -280 -1020 108 -108 1020 280 -619 861 338 429"/>
    </vehicle>
    <vehicle id="f0.25" type="car_passenger" depart="500.00" departLane="best" departSpeed="max">
        <route edges="16 1020 280 -619 861 160 -160 -861 619 -280 -1020 108 -108 1020 280 -619 861 338 429"/>
    </vehicle>
    <vehicle id="f0.26" type="car_passenger" depart="520.00" departLane="best" departSpeed="max">
        <route edges="16 1020 280 -619 861 160 -160 -861 619 -280 -1020 108 -108 1020 280 -619 861 338 429"/>
    </vehicle>
    <vehicle id="f0.27" type="car_passenger" depart="540.00" departLane="best" departSpeed="max">
        <route edges="16 1020 280 -619 861 160 -160 -861 619 -280 -1020 108 -108 1020 280 -619 861 338 429"/>
    </vehicle>
    <vehicle id="f0.28" type="car_passenger" depart="560.00" departLane="best" departSpeed="max">
        <route edges="16 1020 280 -619 861 160 -160 -861 619 -280 -1020 108 -108 1020 280 -619 861 338 429"/>
    </vehicle>
    <vehicle id="f0.29" type="car_passenger" depart="580.00" departLane="best" departSpeed="max">
        <route edges="16 1020 280 -619 861 160 -160 -861 619 -280 -1020 108 -108 1020 280 -619 861 338 429"/>
    </vehicle>
    <vehicle id="f0.30" type="car_passenger" depart="600.00" departLane="best" departSpeed="max">
        <route edges="16 1020 280 -619 861 160 -160 -861 619 -280 -1020 108 -108 1020 280 -619 861 338 429"/>
    </vehicle>
    <vehicle id="f0.31" type="car_passenger" depart="620.00" departLane="best" departSpeed="max">
        <route edges="16 1020 280 -619 861 160 -160 -861 619 -280 -1020 108 -108 1020 280 -619 861 338 429"/>
    </vehicle>
    <vehicle id="f0.32" type="car_passenger" depart="640.00" departLane="best" departSpeed="max">
        <route edges="16 1020 280 -619 861 160 -160 -861 619 -280 -1020 108 -108 1020 280 -619 861 338 429"/>
    </vehicle>
    <vehicle id="f0.33" type="car_passenger" depart="660.00" departLane="best" departSpeed="max">
        <route edges="16 1020 280 -619 861 160 -160 -861 619 -280 -1020 108 -108 1020 280 -619 861 338 429"/>
    </vehicle>
    <vehicle id="f0.34" type="car_passenger" depart="680.00" departLane="best" departSpeed="max">
        <route edges="16 1020 280 -619 861 160 -160 -861 619 -280 -1020 108 -108 1020 280 -619 861 338 429"/>
    </vehicle>
    <vehicle id="f0.35" type="car_passenger" depart="700.00" departLane="best" departSpeed="max">
        <route edges="16 1020 280 -619 861 160 -160 -861 619 -280 -1020 108 -108 1020 280 -619 861 338 429"/>
    </vehicle>
    <vehicle id="f0.36" type="car_passenger" depart="720.00" departLane="best" departSpeed="max">
        <route edges="16 1020 280 -619 861 160 -160 -861 619 -280 -1020 108 -108 1020 280 -619 861 338 429"/>
    </vehicle>
    <vehicle id="f0.37" type="car_passenger" depart="740.00" departLane="best" departSpeed="max">
        <route edges="16 1020 280 -619 861 160 -160 -861 619 -280 -1020 108 -108 1020 280 -619 861 338 429"/>
    </vehicle>
    <vehicle id="f0.38" type="car_passenger" depart="760.00" departLane="best" departSpeed="max">
        <route edges="16 1020 280 -619 861 160 -160 -861 619 -280 -1020 108 -108 1020 280 -619 861 338 429"/>
    </vehicle>
    <vehicle id="f0.39" type="car_passenger" depart="780.00" departLane="best" departSpeed="max">
        <route edges="16 1020 280 -619 861 160 -160 -861 619 -280 -1020 108 -108 1020 280 -619 861 338 429"/>
    </vehicle>
    <vehicle id="f0.40" type="car_passenger" depart="800.00" departLane="best" departSpeed="max">
        <route edges="16 1020 280 -619 861 160 -160 -861 619 -280 -1020 108 -108 1020 280 -619 861 338 429"/>
    </vehicle>
    <vehicle id="f0.41" type="car_passenger" depart="820.00" departLane="best" departSpeed="max">
        <route edges="16 1020 280 -619 861 160 -160 -861 619 -280 -1020 108 -108 1020 280 -619 861 338 429"/>
    </vehicle>
    <vehicle id="f0.42" type="car_passenger" depart="840.00" departLane="best" departSpeed="max">
        <route edges="16 1020 280 -619 861 160 -160 -861 619 -280 -1020 108 -108 1020 280 -619 861 338 429"/>
    </vehicle>
    <vehicle id="f0.43" type="car_passenger" depart="860.00" departLane="best" departSpeed="max">
        <route edges="16 1020 280 -619 861 160 -160 -861 619 -280 -1020 108 -108 1020 280 -619 861 338 429"/>
    </vehicle>
    <vehicle id="f0.44" type="car_passenger" depart="880.00" departLane="best" departSpeed="max">
        <route edges="16 1020 280 -619 861 160 -160 -861 619 -280 -1020 108 -108 1020 280 -619 861 338 429"/>
    </vehicle>
    <vehicle id="f0.45" type="car_passenger" depart="900.00" departLane="best" departSpeed="max">
        <route edges="16 1020 280 -619 861 160 -160 -861 619 -280 -1020 108 -108 1020 280 -619 861 338 429"/>
    </vehicle>
    <vehicle id="f0.46" type="car_passenger" depart="920.00" departLane="best" departSpeed="max">
        <route edges="16 1020 280 -619 861 160 -160 -861 619 -280 -1020 108 -108 1020 280 -619 861 338 429"/>
    </vehicle>
    <vehicle id="f0.47" type="car_passenger" depart="940.00" departLane="best" departSpeed="max">
        <route edges="16 1020 280 -619 861 160 -160 -861 619 -280 -1020 108 -108 1020 280 -619 861 338 429"/>
    </vehicle>
    <vehicle id="f0.48" type="car_passenger" depart="960.00" departLane="best" departSpeed="max">
        <route edges="16 1020 280 -619 861 160 -160 -861 619 -280 -1020 108 -108 1020 280 -619 861 338 429"/>
    </vehicle>
    <vehicle id="f0.49" type="car_passenger" depart="980.00" departLane="best" departSpeed="max">
        <route edges="16 1020 280 -619 861 160 -160 -861 619 -280 -1020 108 -108 1020 280 -619 861 338 429"/>
    </vehicle>
    <vehicle id="f0.50" type="car_passenger" depart="1000.00" departLane="best" departSpeed="max">
        <route edges="16 1020 280 -619 861 160 -160 -861 619 -280 -1020 108 -108 1020 280 -619 861 338 429"/>
    </vehicle>
    <vehicle id="f0.51" type="car_passenger" depart="1020.00" departLane="best" departSpeed="max">
        <route edges="16 1020 280 -619 861 160 -160 -861 619 -280 -1020 108 -108 1020 280 -619 861 338 429"/>
    </vehicle>
    <vehicle id="f0.52" type="car_passenger" depart="1040.00" departLane="best" departSpeed="max">
        <route edges="16 1020 280 -619 861 160 -160 -861 619 -280 -1020 108 -108 1020 280 -619 861 338 429"/>
    </vehicle>
    <vehicle id="f0.53" type="car_passenger" depart="1060.00" departLane="best" departSpeed="max">
        <route edges="16 1020 280 -619 861 160 -160 -861 619 -280 -1020 108 -108 1020 280 -619 861 338 429"/>
    </vehicle>
    <vehicle id="f0.54" type="car_passenger" depart="1080.00" departLane="best" departSpeed="max">
        <route edges="16 1020 280 -619 861 160 -160 -861 619 -280 -1020 108 -108 1020 280 -619 861 338 429"/>
    </vehicle>
    <vehicle id="f0.55" type="car_passenger" depart="1100.00" departLane="best" departSpeed="max">
        <route edges="16 1020 280 -619 861 160 -160 -861 619 -280 -1020 108 -108 1020 280 -619 861 338 429"/>
    </vehicle>
    <vehicle id="f0.56" type="car_passenger" depart="1120.00" departLane="best" departSpeed="max">
        <route edges="16 1020 280 -619 861 160 -160 -861 619 -280 -1020 108 -108 1020 280 -619 861 338 429"/>
    </vehicle>
    <vehicle id="f0.57" type="car_passenger" depart="1140.00" departLane="best" departSpeed="max">
        <route edges="16 1020 280 -619 861 160 -160 -861 619 -280 -1020 108 -108 1020 280 -619 861 338 429"/>
    </vehicle>
    <vehicle id="f0.58" type="car_passenger" depart="1160.00" departLane="best" departSpeed="max">
        <route edges="16 1020 280 -619 861 160 -160 -861 619 -280 -1020 108 -108 1020 280 -619 861 338 429"/>
    </vehicle>
    <vehicle id="f0.59" type="car_passenger" depart="1180.00" departLane="best" departSpeed="max">
        <route edges="16 1020 280 -619 861 160 -160 -861 619 -280 -1020 108 -108 1020 280 -619 861 338 429"/>
    </vehicle>
    <vehicle id="f0.60" type="car_passenger" depart="1200.00" departLane="best" departSpeed="max">
        <route edges="16 1020 280 -619 861 160 -160 -861 619 -280 -1020 108 -108 1020 280 -619 861 338 429"/>
    </vehicle>
    <vehicle id="f0.61" type="car_passenger" depart="1220.00" departLane="best" departSpeed="max">
        <route edges="16 1020 280 -619 861 160 -160 -861 619 -280 -1020 108 -108 1020 280 -619 861 338 429"/>
    </vehicle>
    <vehicle id="f0.62" type="car_passenger" depart="1240.00" departLane="best" departSpeed="max">
        <route edges="16 1020 280 -619 861 160 -160 -861 619 -280 -1020 108 -108 1020 280 -619 861 338 429"/>
    </vehicle>
    <vehicle id="f0.63" type="car_passenger" depart="1260.00" departLane="best" departSpeed="max">
        <route edges="16 1020 280 -619 861 160 -160 -861 619 -280 -1020 108 -108 1020 280 -619 861 338 429"/>
    </vehicle>
    <vehicle id="f0.64" type="car_passenger" depart="1280.00" departLane="best" departSpeed="max">
        <route edges="16 1020 280 -619 861 160 -160 -861 619 -280 -1020 108 -108 1020 280 -619 861 338 429"/>
    </vehicle>
    <vehicle id="f0.65" type="car_passenger" depart="1300.00" departLane="best" departSpeed="max">
        <route edges="16 1020 280 -619 861 160 -160 -861 619 -280 -1020 108 -108 1020 280 -619 861 338 429"/>
    </vehicle>
    <vehicle id="f0.66" type="car_passenger" depart="1320.00" departLane="best" departSpeed="max">
        <route edges="16 1020 280 -619 861 160 -160 -861 619 -280 -1020 108 -108 1020 280 -619 861 338 429"/>
    </vehicle>
    <vehicle id="f0.67" type="car_passenger" depart="1340.00" departLane="best" departSpeed="max">
        <route edges="16 1020 280 -619 861 160 -160 -861 619 -280 -1020 108 -108 1020 280 -619 861 338 429"/>
    </vehicle>
    <vehicle id="f0.68" type="car_passenger" depart="1360.00" departLane="best" departSpeed="max">
        <route edges="16 1020 280 -619 861 160 -160 -861 619 -280 -1020 108 -108 1020 280 -619 861 338 429"/>
    </vehicle>
    <vehicle id="f0.69" type="car_passenger" depart="1380.00" departLane="best" departSpeed="max">
        <route edges="16 1020 280 -619 861 160 -160 -861 619 -280 -1020 108 -108 1020 280 -619 861 338 429"/>
    </vehicle>
    <vehicle id="f0.70" type="car_passenger" depart="1400.00" departLane="best" departSpeed="max">
        <route edges="16 1020 280 -619 861 160 -160 -861 619 -280 -1020 108 -108 1020 280 -619 861 338 429"/>
    </vehicle>
    <vehicle id="f0.71" type="car_passenger" depart="1420.00" departLane="best" departSpeed="max">
        <route edges="16 1020 280 -619 861 160 -160 -861 619 -280 -1020 108 -108 1020 280 -619 861 338 429"/>
    </vehicle>
    <vehicle id="f0.72" type="car_passenger" depart="1440.00" departLane="best" departSpeed="max">
        <route edges="16 1020 280 -619 861 160 -160 -861 619 -280 -1020 108 -108 1020 280 -619 861 338 429"/>
    </vehicle>
    <vehicle id="f0.73" type="car_passenger" depart="1460.00" departLane="best" departSpeed="max">
        <route edges="16 1020 280 -619 861 160 -160 -861 619 -280 -1020 108 -108 1020 280 -619 861 338 429"/>
    </vehicle>
    <vehicle id="f0.74" type="car_passenger" depart="1480.00" departLane="best" departSpeed="max">
        <route edges="16 1020 280 -619 861 160 -160 -861 619 -280 -1020 108 -108 1020 280 -619 861 338 429"/>
    </vehicle>
    <vehicle id="f0.75" type="car_passenger" depart="1500.00" departLane="best" departSpeed="max">
        <route edges="16 1020 280 -619 861 160 -160 -861 619 -280 -1020 108 -108 1020 280 -619 861 338 429"/>
    </vehicle>
    <vehicle id="f0.76" type="car_passenger" depart="1520.00" departLane="best" departSpeed="max">
        <route edges="16 1020 280 -619 861 160 -160 -861 619 -280 -1020 108 -108 1020 280 -619 861 338 429"/>
    </vehicle>
    <vehicle id="f0.77" type="car_passenger" depart="1540.00" departLane="best" departSpeed="max">
        <route edges="16 1020 280 -619 861 160 -160 -861 619 -280 -1020 108 -108 1020 280 -619 861 338 429"/>
    </vehicle>
    <vehicle id="f0.78" type="car_passenger" depart="1560.00" departLane="best" departSpeed="max">
        <route edges="16 1020 280 -619 861 160 -160 -861 619 -280 -1020 108 -108 1020 280 -619 861 338 429"/>
    </vehicle>
    <vehicle id="f0.79" type="car_passenger" depart="1580.00" departLane="best" departSpeed="max">
        <route edges="16 1020 280 -619 861 160 -160 -861 619 -280 -1020 108 -108 1020 280 -619 861 338 429"/>
    </vehicle>
    <vehicle id="f0.80" type="car_passenger" depart="1600.00" departLane="best" departSpeed="max">
        <route edges="16 1020 280 -619 861 160 -160 -861 619 -280 -1020 108 -108 1020 280 -619 861 338 429"/>
    </vehicle>
    <vehicle id="f0.81" type="car_passenger" depart="1620.00" departLane="best" departSpeed="max">
        <route edges="16 1020 280 -619 861 160 -160 -861 619 -280 -1020 108 -108 1020 280 -619 861 338 429"/>
    </vehicle>
    <vehicle id="f0.82" type="car_passenger" depart="1640.00" departLane="best" departSpeed="max">
        <route edges="16 1020 280 -619 861 160 -160 -861 619 -280 -1020 108 -108 1020 280 -619 861 338 429"/>
    </vehicle>
    <vehicle id="f0.83" type="car_passenger" depart="1660.00" departLane="best" departSpeed="max">
        <route edges="16 1020 280 -619 861 160 -160 -861 619 -280 -1020 108 -108 1020 280 -619 861 338 429"/>
    </vehicle>
    <vehicle id="f0.84" type="car_passenger" depart="1680.00" departLane="best" departSpeed="max">
        <route edges="16 1020 280 -619 861 160 -160 -861 619 -280 -1020 108 -108 1020 280 -619 861 338 429"/>
    </vehicle>
    <vehicle id="f0.85" type="car_passenger" depart="1700.00" departLane="best" departSpeed="max">
        <route edges="16 1020 280 -619 861 160 -160 -861 619 -280 -1020 108 -108 1020 280 -619 861 338 429"/>
    </vehicle>
    <vehicle id="f0.86" type="car_passenger" depart="1720.00" departLane="best" departSpeed="max">
        <route edges="16 1020 280 -619 861 160 -160 -861 619 -280 -1020 108 -108 1020 280 -619 861 338 429"/>
    </vehicle>
    <vehicle id="f0.87" type="car_passenger" depart="1740.00" departLane="best" departSpeed="max">
        <route edges="16 1020 280 -619 861 160 -160 -861 619 -280 -1020 108 -108 1020 280 -619 861 338 429"/>
    </vehicle>
    <vehicle id="f0.88" type="car_passenger" depart="1760.00" departLane="best" departSpeed="max">
        <route edges="16 1020 280 -619 861 160 -160 -861 619 -280 -1020 108 -108 1020 280 -619 861 338 429"/>
    </vehicle>
    <vehicle id="f0.89" type="car_passenger" depart="1780.00" departLane="best" departSpeed="max">
        <route edges="16 1020 280 -619 861 160 -160 -861 619 -280 -1020 108 -108 1020 280 -619 861 338 429"/>
    </vehicle>
    <vehicle id="f0.90" type="car_passenger" depart="1800.00" departLane="best" departSpeed="max">
        <route edges="16 1020 280 -619 861 160 -160 -861 619 -280 -1020 108 -108 1020 280 -619 861 338 429"/>
    </vehicle>
    <vehicle id="f0.91" type="car_passenger" depart="1820.00" departLane="best" departSpeed="max">
        <route edges="16 1020 280 -619 861 160 -160 -861 619 -280 -1020 108 -108 1020 280 -619 861 338 429"/>
    </vehicle>
    <vehicle id="f0.92" type="car_passenger" depart="1840.00" departLane="best" departSpeed="max">
        <route edges="16 1020 280 -619 861 160 -160 -861 619 -280 -1020 108 -108 1020 280 -619 861 338 429"/>
    </vehicle>
    <vehicle id="f0.93" type="car_passenger" depart="1860.00" departLane="best" departSpeed="max">
        <route edges="16 1020 280 -619 861 160 -160 -861 619 -280 -1020 108 -108 1020 280 -619 861 338 429"/>
    </vehicle>
    <vehicle id="f0.94" type="car_passenger" depart="1880.00" departLane="best" departSpeed="max">
        <route edges="16 1020 280 -619 861 160 -160 -861 619 -280 -1020 108 -108 1020 280 -619 861 338 429"/>
    </vehicle>
    <vehicle id="f0.95" type="car_passenger" depart="1900.00" departLane="best" departSpeed="max">
        <route edges="16 1020 280 -619 861 160 -160 -861 619 -280 -1020 108 -108 1020 280 -619 861 338 429"/>
    </vehicle>
    <vehicle id="f0.96" type="car_passenger" depart="1920.00" departLane="best" departSpeed="max">
        <route edges="16 1020 280 -619 861 160 -160 -861 619 -280 -1020 108 -108 1020 280 -619 861 338 429"/>
    </vehicle>
    <vehicle id="f0.97" type="car_passenger" depart="1940.00" departLane="best" departSpeed="max">
        <route edges="16 1020 280 -619 861 160 -160 -861 619 -280 -1020 108 -108 1020 280 -619 861 338 429"/>
    </vehicle>
    <vehicle id="f0.98" type="car_passenger" depart="1960.00" departLane="best" departSpeed="max">
        <route edges="16 1020 280 -619 861 160 -160 -861 619 -280 -1020 108 -108 1020 280 -619 861 338 429"/>
    </vehicle>
    <vehicle id="f0.99" type="car_passenger" depart="1980.00" departLane="best" departSpeed="max">
        <route edges="16 1020 280 -619 861 160 -160 -861 619 -280 -1020 108 -108 1020 280 -619 861 338 429"/>
    </vehicle>
    <vehicle id="f0.100" type="car_passenger" depart="2000.00" departLane="best" departSpeed="max">
        <route edges="16 1020 280 -619 861 160 -160 -861 619 -280 -1020 108 -108 1020 280 -619 861 338 429"/>
    </vehicle>
    <vehicle id="f0.101" type="car_passenger" depart="2020.00" departLane="best" departSpeed="max">
        <route edges="16 1020 280 -619 861 160 -160 -861 619 -280 -1020 108 -108 1020 280 -619 861 338 429"/>
    </vehicle>
    <vehicle id="f0.102" type="car_passenger" depart="2040.00" departLane="best" departSpeed="max">
        <route edges="16 1020 280 -619 861 160 -160 -861 619 -280 -1020 108 -108 1020 280 -619 861 338 429"/>
    </vehicle>
    <vehicle id="f0.103" type="car_passenger" depart="2060.00" departLane="best" departSpeed="max">
        <route edges="16 1020 280 -619 861 160 -160 -861 619 -280 -1020 108 -108 1020 280 -619 861 338 429"/>
    </vehicle>
    <vehicle id="f0.104" type="car_passenger" depart="2080.00" departLane="best" departSpeed="max">
        <route edges="16 1020 280 -619 861 160 -160 -861 619 -280 -1020 108 -108 1020 280 -619 861 338 429"/>
    </vehicle>
    <vehicle id="f0.105" type="car_passenger" depart="2100.00" departLane="best" departSpeed="max">
        <route edges="16 1020 280 -619 861 160 -160 -861 619 -280 -1020 108 -108 1020 280 -619 861 338 429"/>
    </vehicle>
    <vehicle id="f0.106" type="car_passenger" depart="2120.00" departLane="best" departSpeed="max">
        <route edges="16 1020 280 -619 861 160 -160 -861 619 -280 -1020 108 -108 1020 280 -619 861 338 429"/>
    </vehicle>
    <vehicle id="f0.107" type="car_passenger" depart="2140.00" departLane="best" departSpeed="max">
        <route edges="16 1020 280 -619 861 160 -160 -861 619 -280 -1020 108 -108 1020 280 -619 861 338 429"/>
    </vehicle>
    <vehicle id="f0.108" type="car_passenger" depart="2160.00" departLane="best" departSpeed="max">
        <route edges="16 1020 280 -619 861 160 -160 -861 619 -280 -1020 108 -108 1020 280 -619 861 338 429"/>
    </vehicle>
    <vehicle id="f0.109" type="car_passenger" depart="2180.00" departLane="best" departSpeed="max">
        <route edges="16 1020 280 -619 861 160 -160 -861 619 -280 -1020 108 -108 1020 280 -619 861 338 429"/>
    </vehicle>
    <vehicle id="f0.110" type="car_passenger" depart="2200.00" departLane="best" departSpeed="max">
        <route edges="16 1020 280 -619 861 160 -160 -861 619 -280 -1020 108 -108 1020 280 -619 861 338 429"/>
    </vehicle>
    <vehicle id="f0.111" type="car_passenger" depart="2220.00" departLane="best" departSpeed="max">
        <route edges="16 1020 280 -619 861 160 -160 -861 619 -280 -1020 108 -108 1020 280 -619 861 338 429"/>
    </vehicle>
    <vehicle id="f0.112" type="car_passenger" depart="2240.00" departLane="best" departSpeed="max">
        <route edges="16 1020 280 -619 861 160 -160 -861 619 -280 -1020 108 -108 1020 280 -619 861 338 429"/>
    </vehicle>
    <vehicle id="f0.113" type="car_passenger" depart="2260.00" departLane="best" departSpeed="max">
        <route edges="16 1020 280 -619 861 160 -160 -861 619 -280 -1020 108 -108 1020 280 -619 861 338 429"/>
    </vehicle>
    <vehicle id="f0.114" type="car_passenger" depart="2280.00" departLane="best" departSpeed="max">
        <route edges="16 1020 280 -619 861 160 -160 -861 619 -280 -1020 108 -108 1020 280 -619 861 338 429"/>
    </vehicle>
    <vehicle id="f0.115" type="car_passenger" depart="2300.00" departLane="best" departSpeed="max">
        <route edges="16 1020 280 -619 861 160 -160 -861 619 -280 -1020 108 -108 1020 280 -619 861 338 429"/>
    </vehicle>
    <vehicle id="f0.116" type="car_passenger" depart="2320.00" departLane="best" departSpeed="max">
        <route edges="16 1020 280 -619 861 160 -160 -861 619 -280 -1020 108 -108 1020 280 -619 861 338 429"/>
    </vehicle>
    <vehicle id="f0.117" type="car_passenger" depart="2340.00" departLane="best" departSpeed="max">
        <route edges="16 1020 280 -619 861 160 -160 -861 619 -280 -1020 108 -108 1020 280 -619 861 338 429"/>
    </vehicle>
    <vehicle id="f0.118" type="car_passenger" depart="2360.00" departLane="best" departSpeed="max">
        <route edges="16 1020 280 -619 861 160 -160 -861 619 -280 -1020 108 -108 1020 280 -619 861 338 429"/>
    </vehicle>
    <vehicle id="f0.119" type="car_passenger" depart="2380.00" departLane="best" departSpeed="max">
        <route edges="16 1020 280 -619 861 160 -160 -861 619 -280 -1020 108 -108 1020 280 -619 861 338 429"/>
    </vehicle>
    <vehicle id="f0.120" type="car_passenger" depart="2400.00" departLane="best" departSpeed="max">
        <route edges="16 1020 280 -619 861 160 -160 -861 619 -280 -1020 108 -108 1020 280 -619 861 338 429"/>
    </vehicle>
    <vehicle id="f0.121" type="car_passenger" depart="2420.00" departLane="best" departSpeed="max">
        <route edges="16 1020 280 -619 861 160 -160 -861 619 -280 -1020 108 -108 1020 280 -619 861 338 429"/>
    </vehicle>
    <vehicle id="f0.122" type="car_passenger" depart="2440.00" departLane="best" departSpeed="max">
        <route edges="16 1020 280 -619 861 160 -160 -861 619 -280 -1020 108 -108 1020 280 -619 861 338 429"/>
    </vehicle>
    <vehicle id="f0.123" type="car_passenger" depart="2460.00" departLane="best" departSpeed="max">
        <route edges="16 1020 280 -619 861 160 -160 -861 619 -280 -1020 108 -108 1020 280 -619 861 338 429"/>
    </vehicle>
    <vehicle id="f0.124" type="car_passenger" depart="2480.00" departLane="best" departSpeed="max">
        <route edges="16 1020 280 -619 861 160 -160 -861 619 -280 -1020 108 -108 1020 280 -619 861 338 429"/>
    </vehicle>
    <vehicle id="f0.125" type="car_passenger" depart="2500.00" departLane="best" departSpeed="max">
        <route edges="16 1020 280 -619 861 160 -160 -861 619 -280 -1020 108 -108 1020 280 -619 861 338 429"/>
    </vehicle>
    <vehicle id="f0.126" type="car_passenger" depart="2520.00" departLane="best" departSpeed="max">
        <route edges="16 1020 280 -619 861 160 -160 -861 619 -280 -1020 108 -108 1020 280 -619 861 338 429"/>
    </vehicle>
    <vehicle id="f0.127" type="car_passenger" depart="2540.00" departLane="best" departSpeed="max">
        <route edges="16 1020 280 -619 861 160 -160 -861 619 -280 -1020 108 -108 1020 280 -619 861 338 429"/>
    </vehicle>
    <vehicle id="f0.128" type="car_passenger" depart="2560.00" departLane="best" departSpeed="max">
        <route edges="16 1020 280 -619 861 160 -160 -861 619 -280 -1020 108 -108 1020 280 -619 861 338 429"/>
    </vehicle>
    <vehicle id="f0.129" type="car_passenger" depart="2580.00" departLane="best" departSpeed="max">